/*--------------------------------*- C++ -*----------------------------------*\
  =========                 |
  \\      /  F ield         | OpenFOAM: The Open Source CFD Toolbox
   \\    /   O peration     | Website:  https://openfoam.org
    \\  /    A nd           | Version:  12
     \\/     M anipulation  |
\*---------------------------------------------------------------------------*/
FoamFile
{
    format      ascii;
    class       dictionary;
    location    "constant";
    object      chemistryProperties;
}
// * * * * * * * * * * * * * * * * * * * * * * * * * * * * * * * * * * * * * //

chemistryType
{
    solver      ode;
    method      Park2T;
}

chemistry       on;

initialChemicalTimeStep 1e-7;

EulerImplicitCoeffs
{
    cTauChem        1;
}

twoTemperatureModel
{
    q	1.0;
}

odeCoeffs
{
    solver          seulex;
    absTol          1e-12;
    relTol          1e-1;
}

#include "reactions"

// ************************************************************************* //
