/*--------------------------------*- C++ -*----------------------------------*\
  =========                 |
T	20000;
   \\    /   O peration     | Website:  https://openfoam.org
    \\  /    A nd           | Version:  12
     \\/     M anipulation  |
\*---------------------------------------------------------------------------*/
FoamFile
{
    format      ascii;
    class       dictionary;
    location    "constant";
    object      initialConditions;
}
// * * * * * * * * * * * * * * * * * * * * * * * * * * * * * * * * * * * * * //

constantProperty pressure;

fractionBasis  mole;

fractions
{
    N2		0.40;
    O2		0.15;
    N		0.01;
    O		0.01;
    NO		0.03;
    NO+		0.15;
    e-		0.05;
    N+		0.10;
    O+		0.05;
    N2+		0.01;
    O2+		0.04;
    /*N2		0.5;
    O2		0.5;
    N		0;
    O		0;
    NO		0;
    NO+		0;
    e-		0;
    N+		0;
    O+		0;
    N2+		0;
    O2+		0;*/
}

p               202650;

T	15000;


// ************************************************************************* //
